<%!
import numpy as np
%>

-- This reservoir simulation deck is made available under the Open Database
-- License: http://opendatacommons.org/licenses/odbl/1.0/. Any rights in
-- individual contents of the database are licensed under the Database Contents
-- License: http://opendatacommons.org/licenses/dbcl/1.0/

-- Copyright (C) 2022 Equinor

--==============================================================================
--		Synthetic reservoir simulation model Drogon (2020)
--==============================================================================

-- The Drogon model - the successor of the Reek model
-- Used in a FMU set up
-- Grid input data generated from RMS project 


-- =============================================================================
RUNSPEC
-- =============================================================================

-- Simulation run title
TITLE
 Drogon synthetic reservoir model

-- Simulation run start
START
 1 JAN 2018 /

-- Fluid phases present
OIL
GAS
WATER
DISGAS
VAPOIL

-- Measurement unit used
METRIC

DIMENS
12 19 31   /

-- Options for equilibration
EQLOPTS
 'THPRES'  /

CPR
/

-- Dimensions and options for tracers
-- 2 water tracers
TRACERS
 1*  2 /

TABDIMS
-- NTSFUN  NTPVT  NSSFUN  NPPVT  NTFIP  NRPVT   
    180      2      200     24     6      20    /

-- Dimension of equilibration tables
INCLUDE
  '../include/runspec/drogon.eqldims' / -- exported by rms

-- Regions dimension data
INCLUDE
  '../include/runspec/drogon.regdims' / -- exported by rms

-- x-,y-,z- and multnum regions
INCLUDE
  '../include/runspec/drogon.gridopts' / -- exported by rms

-- Dimensions for fault data
FAULTDIM
 500 /

-- Well dimension data
-- nwmaxz: max wells in the model
-- ncwmax: max connections per well
-- ngmaxz: max groups in the model
-- nwgmax: max wells in any one group
WELLDIMS
-- nwmaxz  ncwmax  ngmaxz  nwgmax
   20       100     10       20 /

-- Dimensions for multi-segment wells
-- nswlmx: max multi-segment wells in the model
-- nsegmx: max segments per well
-- nlbrmx: max branches per multi-segment well
WSEGDIMS
-- nswlmx  nsegmx  nlbrmx
   3       150      100 /


-- Input and output files format
UNIFIN
--UNIFOUT

-- Disables the initial index file output
NOINSPEC

-- Disables the restart index file output
NORSSPEC


-- print and stop limits
-- -----------print------------  -----------stop--------------------
-- mes  com  war  prb  err  bug  mes  com   war     prb    err  bug  
MESSAGES
   1*   1*   1*   1000 10   1*   1*    1*  1000000 7000    0   /


-- =============================================================================
GRID
-- =============================================================================
NOECHO

NEWTRAN

GRIDFILE
 0 1 /

INIT

--Generates connections across pinched-out layers
PINCH
 3*  ALL  /

INCLUDE
 '../include/coarse/DROGON_COARSER.GRDECL' /

INCLUDE
 '../include/coarse/actnum.inc' /

INCLUDE
 '../include/coarse/fault.inc' / 

INCLUDE
 '../include/coarse/poro.inc' /

--INCLUDE
-- '../include/coarse/ntg.inc' /
 
INCLUDE
'../include/coarse/PERMX.inc' /

INCLUDE
'../include/coarse/PERMY.inc' /

INCLUDE
'../include/coarse/PERMZ.inc' /
 
INCLUDE
 '../include/coarse/multnum.inc' /

INCLUDE
 '../include/grid/drogon.multregt' / --from ert template


MULTREGT
--REGIONS    MULTIPLIER         DIRECTION
-- Tran mult between Valysar and Therys
${" 1   2      {0}   'Z'   /".format(pow(10.0,mltregt[0]))}
-- Tran mult between Valysar and Volon 
${" 1   3      {0}   'Z'   /".format(pow(10.0,mltregt[1]))}
-- Tran mult between Therys and Volon 
${" 2   3      {0}    'Z'   /".format(pow(10.0,mltregt[2]))} 
/

MULTFLT
${" F1 {0} /".format(pow(10.0,fltmlt[0]))}
${" F2 {0} /".format(pow(10.0,fltmlt[1]))}
${" F3 {0} /".format(pow(10.0,fltmlt[2]))}
${" F4 {0} /".format(pow(10.0,fltmlt[3]))}
${" F5 {0} /".format(pow(10.0,fltmlt[4]))}
${" F6 {0} /".format(pow(10.0,fltmlt[5]))}
/
-- =============================================================================
EDIT
-- =============================================================================

INCLUDE
 '../include/coarse/trans.inc' /

INCLUDE
 '../include/coarse/porv.inc' /
-- =============================================================================
PROPS
-- =============================================================================

FILLEPS

--INCLUDE
-- '/include/props/drogon.sattab' / --exported by rms


SWOFLET
-- Swco    Swcr    Lw      Ew      Tw      Krtw ||  Sorw    Sowcr   Lo      Eo      To      Krto  ||  L       E       T       Pcir    Pct
-- Table 1
--  0.021   0.021   1.927   5.667   2.214   0.995    0.000   0.000   4.970   2.286   1.115   1.002    6.714 391.550   1.246   9.956   0.002  /
% for i in range(15):
${"  0.021  0.021 {0} {1} {2} {3} 0.000  0.000 {4} {5} {6} {7} 6.714 391.550   1.246   9.956   0.002 /".format(max(1.1,lw[i]) , pow(10.0,ew[i]) , max(1.1,tw[i]) , max(0.1,min(1.5,krw[i])) , max(1.1,lo[i]) , pow(10.0,eo[i]) , max(1.1,to[i]) , max(0.1,min(1.5,krow[i])))}
% endfor
-- Table 2
--  0.118   0.118   1.846   6.347   2.408   0.995    0.000   0.000   5.136   2.282   1.107   1.002    4.468  43.215   1.123   9.943   0.010  /
% for i in range(15,30):
${"  0.118  0.118 {0} {1} {2} {3} 0.000  0.000 {4} {5} {6} {7} 4.468  43.215   1.123   9.943   0.010 /".format(max(1.1,lw[i]) , pow(10.0,ew[i]) , max(1.1,tw[i]) , max(0.1,min(1.5,krw[i])) , max(1.1,lo[i]) , pow(10.0,eo[i]) , max(1.1,to[i]) , max(0.1,min(1.5,krow[i])))}
% endfor
-- Table 3
--  0.021   0.021   1.926   5.673   2.215   0.995    0.000   0.000   4.971   2.286   1.114   1.002    6.615 371.221   1.242   9.956   0.002  /
% for i in range(30,45):
${"  0.021  0.021 {0} {1} {2} {3} 0.000  0.000 {4} {5} {6} {7} 6.615 371.221   1.242   9.956   0.002 /".format(max(1.1,lw[i]) , pow(10.0,ew[i]) , max(1.1,tw[i]) , max(0.1,min(1.5,krw[i])) , max(1.1,lo[i]) , pow(10.0,eo[i]) , max(1.1,to[i]) , max(0.1,min(1.5,krow[i])))}
% endfor
-- Table 4
--  0.223   0.223   1.743   7.396   2.686   0.995    0.000   0.000   5.361   2.298   1.100   1.002    3.755  35.880   1.123   9.942   0.017  /
% for i in range(45,60):
${"  0.223  0.223 {0} {1} {2} {3} 0.000  0.000 {4} {5} {6} {7} 3.755  35.880   1.123   9.942   0.017 /".format(max(1.1,lw[i]) , pow(10.0,ew[i]) , max(1.1,tw[i]) , max(0.1,min(1.5,krw[i])) , max(1.1,lo[i]) , pow(10.0,eo[i]) , max(1.1,to[i]) , max(0.1,min(1.5,krow[i])))}
% endfor
-- Table 5
--  0.601   0.601   1.179  21.790   5.670   0.995    0.000   0.000   7.508   2.865   1.100   0.999    1.786   7.927   1.079   9.940   0.191  /
% for i in range(60,75):
${"  0.601  0.601 {0} {1} {2} {3} 0.000  0.000 {4} {5} {6} {7} 1.786   7.927   1.079   9.940   0.191 /".format(max(1.1,lw[i]) , pow(10.0,ew[i]) , max(1.1,tw[i]) , max(0.1,min(1.5,krw[i])) , max(1.1,lo[i]) , pow(10.0,eo[i]) , max(1.1,to[i]) , max(0.1,min(1.5,krow[i])))}
% endfor
-- Table 6
--  0.648   0.648   1.100  29.055   6.905   0.995    0.000   0.000   8.323   3.093   1.100   0.999    1.517   6.080   1.068   9.943   0.343  /
% for i in range(75,90):
${"  0.648  0.648 {0} {1} {2} {3} 0.000  0.000 {4} {5} {6} {7} 1.517   6.080   1.068   9.943   0.343 /".format(max(1.1,lw[i]) , pow(10.0,ew[i]) , max(1.1,tw[i]) , max(0.1,min(1.5,krw[i])) , max(1.1,lo[i]) , pow(10.0,eo[i]) , max(1.1,to[i]) , max(0.1,min(1.5,krow[i])))}
% endfor
-- Table 7
--  0.021   0.021   1.881   4.830   1.100   0.995    0.000   0.000   4.970   2.286   1.115   1.002    6.714 391.550   1.246   9.956   0.002  /
% for i in range(90,105):
${"  0.021  0.021 {0} {1} {2} {3} 0.000  0.000 {4} {5} {6} {7} 6.714 391.550   1.246   9.956   0.002 /".format(max(1.1,lw[i]) , pow(10.0,ew[i]) , max(1.1,tw[i]) , max(0.1,min(1.5,krw[i])) , max(1.1,lo[i]) , pow(10.0,eo[i]) , max(1.1,to[i]) , max(0.1,min(1.5,krow[i])))}
% endfor
-- Table 8
--  0.118   0.118   2.013   4.158   1.100   0.995    0.000   0.000   5.136   2.282   1.107   1.002    4.468  43.215   1.123   9.943   0.010  /
% for i in range(105,120):
${"  0.118  0.118 {0} {1} {2} {3} 0.000  0.000 {4} {5} {6} {7} 4.468  43.215   1.123   9.943   0.010 /".format(max(1.1,lw[i]) , pow(10.0,ew[i]) , max(1.1,tw[i]) , max(0.1,min(1.5,krw[i])) , max(1.1,lo[i]) , pow(10.0,eo[i]) , max(1.1,to[i]) , max(0.1,min(1.5,krow[i])))}
% endfor
-- Table 9
--  0.021   0.021   1.881   4.826   1.100   0.995    0.000   0.000   4.971   2.286   1.114   1.002    6.615 371.221   1.242   9.956   0.002  /
% for i in range(120,135):
${"  0.021  0.021 {0} {1} {2} {3} 0.000  0.000 {4} {5} {6} {7} 6.615 371.221   1.242   9.956   0.002 /".format(max(1.1,lw[i]) , pow(10.0,ew[i]) , max(1.1,tw[i]) , max(0.1,min(1.5,krw[i])) , max(1.1,lo[i]) , pow(10.0,eo[i]) , max(1.1,to[i]) , max(0.1,min(1.5,krow[i])))}
% endfor
-- Table 10
--  0.223   0.223   2.165   3.424   1.100   0.995    0.000   0.000   5.361   2.298   1.100   1.002    3.755  35.880   1.123   9.942   0.017  /
% for i in range(135,150):
${"  0.223  0.223 {0} {1} {2} {3} 0.000  0.000 {4} {5} {6} {7} 3.755  35.880   1.123   9.942   0.017 /".format(max(1.1,lw[i]) , pow(10.0,ew[i]) , max(1.1,tw[i]) , max(0.1,min(1.5,krw[i])) , max(1.1,lo[i]) , pow(10.0,eo[i]) , max(1.1,to[i]) , max(0.1,min(1.5,krow[i])))}
% endfor
-- Table 11
--  0.601   0.601   2.486   1.019   1.100   0.995    0.000   0.000   7.508   2.865   1.100   0.999    1.786   7.927   1.079   9.940   0.191  /
% for i in range(150,165):
${"  0.601  0.601 {0} {1} {2} {3} 0.000  0.000 {4} {5} {6} {7} 1.786   7.927   1.079   9.940   0.191 /".format(max(1.1,lw[i]) , pow(10.0,ew[i]) , max(1.1,tw[i]) , max(0.1,min(1.5,krw[i])) , max(1.1,lo[i]) , pow(10.0,eo[i]) , max(1.1,to[i]) , max(0.1,min(1.5,krow[i])))}
% endfor
-- Table 12
--  0.648   0.648   2.396   0.804   1.100   0.995    0.000   0.000   8.323   3.093   1.100   0.999    1.517   6.080   1.068   9.943   0.343  /
% for i in range(165,180):
${"  0.648  0.648 {0} {1} {2} {3} 0.000  0.000 {4} {5} {6} {7} 1.517   6.080   1.068   9.943   0.343 /".format(max(1.1,lw[i]) , pow(10.0,ew[i]) , max(1.1,tw[i]) , max(0.1,min(1.5,krw[i])) , max(1.1,lo[i]) , pow(10.0,eo[i]) , max(1.1,to[i]) , max(0.1,min(1.5,krow[i])))}
% endfor
SGOFLET
-- Sgl     Sgcr    Lw      Ew      Tw      Krtg ||  Sorg    Sogcr   Lo      Eo      To      Krtog ||  L       E       T       Pcir    Pct
-- Table 1
--  0.000   0.000   2.368   2.065   1.604   1.005    0.000   0.000   4.255   2.438   1.100   0.995    1.000   1.000   1.000   0.000   0.000  /
% for i in range(15):
${"  0.0  0.0 {0} {1} {2} {3}  0.0  0.000 {4} {5} {6} {7}  1.0  1.0  1.0  0.0   0.0 /".format(max(1.1,lg[i]) , pow(10.0,eg[i]) , max(1.1,tg[i]) , max(0.1,min(1.5,krg[i])) , max(1.1,log[i]) , pow(10.0,eog[i]) , max(1.1,tog[i]) , max(0.1,min(1.5,krog[i])))}
% endfor
-- Table 2
--  0.000   0.000   2.335   2.224   1.713   1.005    0.000   0.000   4.333   2.463   1.100   0.995    1.000   1.000   1.000   0.000   0.000  /
% for i in range(15,30):
${"  0.0  0.0 {0} {1} {2} {3}  0.0  0.000 {4} {5} {6} {7}  1.0  1.0  1.0  0.0   0.0 /".format(max(1.1,lg[i]) , pow(10.0,eg[i]) , max(1.1,tg[i]) , max(0.1,min(1.5,krg[i])) , max(1.1,log[i]) , pow(10.0,eog[i]) , max(1.1,tog[i]) , max(0.1,min(1.5,krog[i])))}
% endfor
-- Table 3
--  0.000   0.000   2.366   2.068   1.606   1.005    0.000   0.000   4.255   2.438   1.100   0.995    1.000   1.000   1.000   0.000   0.000  /
% for i in range(30,45):
${"  0.0  0.0 {0} {1} {2} {3}  0.0  0.000 {4} {5} {6} {7}  1.0  1.0  1.0  0.0   0.0 /".format(max(1.1,lg[i]) , pow(10.0,eg[i]) , max(1.1,tg[i]) , max(0.1,min(1.5,krg[i])) , max(1.1,log[i]) , pow(10.0,eog[i]) , max(1.1,tog[i]) , max(0.1,min(1.5,krog[i])))}
% endfor
-- Table 4
--  0.000   0.000   2.273   2.528   1.885   1.005    0.000   0.000   4.443   2.497   1.100   0.995    1.000   1.000   1.000   0.000   0.000  /
% for i in range(45,60):
${"  0.0  0.0 {0} {1} {2} {3}  0.0  0.000 {4} {5} {6} {7}  1.0  1.0  1.0  0.0   0.0 /".format(max(1.1,lg[i]) , pow(10.0,eg[i]) , max(1.1,tg[i]) , max(0.1,min(1.5,krg[i])) , max(1.1,log[i]) , pow(10.0,eog[i]) , max(1.1,tog[i]) , max(0.1,min(1.5,krog[i])))}
% endfor
-- Table 5
--  0.000   0.000   1.863   8.108   3.709   1.005    0.000   0.000   5.550   2.787   1.100   0.999    1.000   1.000   1.000   0.000   0.000  /
% for i in range(60,75):
${"  0.0  0.0 {0} {1} {2} {3}  0.0  0.000 {4} {5} {6} {7}  1.0  1.0  1.0  0.0   0.0 /".format(max(1.1,lg[i]) , pow(10.0,eg[i]) , max(1.1,tg[i]) , max(0.1,min(1.5,krg[i])) , max(1.1,log[i]) , pow(10.0,eog[i]) , max(1.1,tog[i]) , max(0.1,min(1.5,krog[i])))}
% endfor
-- Table 6
--  0.000   0.000   1.578  15.942   4.623   1.005    0.000   0.000   5.969   2.842   1.100   0.999    1.000   1.000   1.000   0.000   0.000  /
% for i in range(75,90):
${"  0.0  0.0 {0} {1} {2} {3}  0.0  0.000 {4} {5} {6} {7}  1.0  1.0  1.0  0.0   0.0 /".format(max(1.1,lg[i]) , pow(10.0,eg[i]) , max(1.1,tg[i]) , max(0.1,min(1.5,krg[i])) , max(1.1,log[i]) , pow(10.0,eog[i]) , max(1.1,tog[i]) , max(0.1,min(1.5,krog[i])))}
% endfor
-- Table 7
--  0.000   0.000   2.368   2.065   1.604   1.005    0.000   0.000   4.255   2.438   1.100   0.995    1.000   1.000   1.000   0.000   0.000  /
% for i in range(90,105):
${"  0.0  0.0 {0} {1} {2} {3}  0.0  0.000 {4} {5} {6} {7}  1.0  1.0  1.0  0.0   0.0 /".format(max(1.1,lg[i]) , pow(10.0,eg[i]) , max(1.1,tg[i]) , max(0.1,min(1.5,krg[i])) , max(1.1,log[i]) , pow(10.0,eog[i]) , max(1.1,tog[i]) , max(0.1,min(1.5,krog[i])))}
% endfor
-- Table 8
--  0.000   0.000   2.335   2.224   1.713   1.005    0.000   0.000   4.333   2.463   1.100   0.995    1.000   1.000   1.000   0.000   0.000  /
% for i in range(105,120):
${"  0.0  0.0 {0} {1} {2} {3}  0.0  0.000 {4} {5} {6} {7}  1.0  1.0  1.0  0.0   0.0 /".format(max(1.1,lg[i]) , pow(10.0,eg[i]) , max(1.1,tg[i]) , max(0.1,min(1.5,krg[i])) , max(1.1,log[i]) , pow(10.0,eog[i]) , max(1.1,tog[i]) , max(0.1,min(1.5,krog[i])))}
% endfor
-- Table 9
--  0.000   0.000   2.366   2.068   1.606   1.005    0.000   0.000   4.255   2.438   1.100   0.995    1.000   1.000   1.000   0.000   0.000  /
% for i in range(120,135):
${"  0.0  0.0 {0} {1} {2} {3}  0.0  0.000 {4} {5} {6} {7}  1.0  1.0  1.0  0.0   0.0 /".format(max(1.1,lg[i]) , pow(10.0,eg[i]) , max(1.1,tg[i]) , max(0.1,min(1.5,krg[i])) , max(1.1,log[i]) , pow(10.0,eog[i]) , max(1.1,tog[i]) , max(0.1,min(1.5,krog[i])))}
% endfor
-- Table 10
--  0.000   0.000   2.273   2.528   1.885   1.005    0.000   0.000   4.443   2.497   1.100   0.995    1.000   1.000   1.000   0.000   0.000  /
% for i in range(135,150):
${"  0.0  0.0 {0} {1} {2} {3}  0.0  0.000 {4} {5} {6} {7}  1.0  1.0  1.0  0.0   0.0 /".format(max(1.1,lg[i]) , pow(10.0,eg[i]) , max(1.1,tg[i]) , max(0.1,min(1.5,krg[i])) , max(1.1,log[i]) , pow(10.0,eog[i]) , max(1.1,tog[i]) , max(0.1,min(1.5,krog[i])))}
% endfor
-- Table 11
--  0.000   0.000   1.863   8.108   3.709   1.005    0.000   0.000   5.550   2.787   1.100   0.999    1.000   1.000   1.000   0.000   0.000  /
% for i in range(150,165):
${"  0.0  0.0 {0} {1} {2} {3}  0.0  0.000 {4} {5} {6} {7}  1.0  1.0  1.0  0.0   0.0 /".format(max(1.1,lg[i]) , pow(10.0,eg[i]) , max(1.1,tg[i]) , max(0.1,min(1.5,krg[i])) , max(1.1,log[i]) , pow(10.0,eog[i]) , max(1.1,tog[i]) , max(0.1,min(1.5,krog[i])))}
% endfor
-- Table 12
--  0.000   0.000   1.578  15.942   4.623   1.005    0.000   0.000   5.969   2.842   1.100   0.999    1.000   1.000   1.000   0.000   0.000  /
% for i in range(165,180):
${"  0.0  0.0 {0} {1} {2} {3}  0.0  0.000 {4} {5} {6} {7}  1.0  1.0  1.0  0.0   0.0 /".format(max(1.1,lg[i]) , pow(10.0,eg[i]) , max(1.1,tg[i]) , max(0.1,min(1.5,krg[i])) , max(1.1,log[i]) , pow(10.0,eog[i]) , max(1.1,tog[i]) , max(0.1,min(1.5,krog[i])))}
% endfor


INCLUDE
 '../include/coarse/swatinit.inc' /

INCLUDE
 '../include/props/drogon.pvt' /

-- Set up tracers
TRACER
 WT1  WAT 'g' /
 WT2  WAT 'g' /
/

EXTRAPMS
  4 /

-- =============================================================================
REGIONS
-- =============================================================================

INCLUDE
 '../include/coarse/eqlnum.inc' /

INCLUDE
 '../include/coarse/fipnum.inc' /

INCLUDE
 '../include/coarse/fipzon.inc' /

INCLUDE
 '../include/coarse/satnum.inc' /


--INCLUDE
-- '../drogon12x5x3.satnum' /
 
INCLUDE
 '../include/coarse/pvtnum.inc' /


-- =============================================================================
SOLUTION
-- =============================================================================
  
--INCLUDE                                
-- '../include/solution/drogon.equil' / --exported by rms   
--INCLUDE
-- '../include/solution/drogon.rxvd' / --!! manually created (7 equil regions)

INCLUDE
 '../include/coarse/init.inc' /
 
INCLUDE                                
 '../include/solution/drogon.thpres' / --exported by rms    

-- Initial tracer concentration vs depth for tracer WT1
TVDPFWT1
 1000  0.0 
 2500  0.0 /   

-- Initial tracer concentration vs depth for tracer WT2
TVDPFWT2
 1000  0.0 
 2500  0.0 /   

RPTSOL
 RESTART=2  FIP=2  'THPRES'  'FIPRESV' /

-- ALLPROPS --> fluid densities, viscosities , reciprocal formation volume factors and phase relative permeabilities
-- NORST=1  --> output for visualization only 
RPTRST
 ALLPROPS RVSAT RSSAT PBPD  NORST=1 RFIP RPORV /


-- =============================================================================
SUMMARY
-- =============================================================================

--RPTONLY

INCLUDE
 '../include/summary/drogon.summary' /


-- =============================================================================
SCHEDULE
-- =============================================================================

-- This reservoir simulation deck is made available under the Open Database
-- License: http://opendatacommons.org/licenses/odbl/1.0/. Any rights in
-- individual contents of the database are licensed under the Database Contents
-- License: http://opendatacommons.org/licenses/dbcl/1.0/

-- Copyright (C) 2022 Equinor

--INCLUDE
-- '../include/coarse/schedule.SCH' /

-- This reservoir simulation deck is made available under the Open Database
-- License: http://opendatacommons.org/licenses/odbl/1.0/. Any rights in
-- individual contents of the database are licensed under the Database Contents
-- License: http://opendatacommons.org/licenses/dbcl/1.0/

-- Copyright (C) 2022 Equinor

-- ==================================================================================================
-- 
-- Exported by user eza from RMS12.1 at 2022-05-26 13:21:29
-- 
-- ==================================================================================================

-- Date: 1 JAN 2018

WELSPECS
--WELL   GROUP  IHEEL JHEEL       DREF PHASE       DRAD INFEQ SIINS XFLOW PRTAB  DENS
 'R_A2' 'RFT'      6    9 1643.93762   OIL         1*    1*  SHUT    NO    1*    1* /
 'R_A3' 'RFT'      7    11  1604.4718   OIL         1*    1*  SHUT    NO    1*    1* /
 'R_A4' 'RFT'      8    14  1628.1826   OIL         1*    1*  SHUT    NO    1*    1* /
 'R_A5' 'RFT'      8    6 1682.35291   OIL         1*    1*  SHUT    NO    1*    1* /
 'R_A6' 'RFT'      5    12 1693.90759   OIL         1*    1*  SHUT    NO    1*    1* /
/


COMPORD
 'R_A2'  INPUT /
 'R_A3'  INPUT /
 'R_A4'  INPUT /
 'R_A5'  INPUT /
 'R_A6'  INPUT /
/

GRUPTREE
  'OP'      'FIELD' /
  'RFT'     'FIELD' /
  'WI'      'FIELD' /
/

COMPDAT
--WELL      I     J    K1    K2 OP/SH  SATN       TRAN      WBDIA         KH       SKIN DFACT   DIR      PEQVR
---------------------------------------------------------------------------------------------------------------
 'R_A2'    6    9    1    1  OPEN    2*     0.2413 3* Z /
 'R_A2'    6    9    2    2  OPEN    2*     0.2413 3* Z /
 'R_A2'    6    9    3    3  OPEN    2*     0.2413 3* Z /
 'R_A2'    6    9    4    4  OPEN    2*     0.2413 3* Z /
 'R_A2'    6    9    5    5  OPEN    2*     0.2413 3* Z /
 'R_A2'    6    9    6    6  OPEN    2*     0.2413 3* Z /
 'R_A2'    6    9    7    7  OPEN    2*     0.2413 3* Z /
 'R_A2'    6    9    8    8  OPEN    2*     0.2413 3* Z /
 'R_A2'    6    9    9    9  OPEN    2*     0.2413 3* Z /
 'R_A2'    6    9    10    10  OPEN    2*     0.2413 3* Z /
 'R_A2'    6    9    11    11  OPEN    2*     0.2413 3* Z /
 'R_A2'    6    9    12    12  OPEN    2*     0.2413 3* Z /
 'R_A2'    6    9    13    13  OPEN    2*     0.2413 3* Z /
 'R_A2'    6    9    14    14  OPEN    2*     0.2413 3* Z /
 'R_A2'    6    9    15    15  OPEN    2*     0.2413 3* Z /
 'R_A2'    6    9    16    16  OPEN    2*     0.2413 3* Z /
 'R_A2'    6    9    17    17  OPEN    2*     0.2413 3* Z /
 'R_A2'    6    9    18    18  OPEN    2*     0.2413 3* Z /
 'R_A2'    6    8    19    19  OPEN    2*     0.2413 3* Z /
 'R_A2'    6    8    27    27  OPEN    2*     0.2413 3* Z /
 'R_A2'    6    8    28    28  OPEN    2*     0.2413 3* Z /
 'R_A2'    6    8    29    29  OPEN    2*     0.2413 3* Z /
 'R_A2'    6    8    30    30  OPEN    2*     0.2413 3* Z /
 'R_A2'    6    8    31    31  OPEN    2*     0.2413 3* Z /
 'R_A3'    7    11    1    1  OPEN    2*     0.2413 3* Z /
 'R_A3'    7    11    2    2  OPEN    2*     0.2413 3* Z /
 'R_A3'    7    11    3    3  OPEN    2*     0.2413 3* Z /
 'R_A3'    7    11    4    4  OPEN    2*     0.2413 3* Z /
 'R_A3'    7    11    5    5  OPEN    2*     0.2413 3* Z /
 'R_A3'    7    11    6    6  OPEN    2*     0.2413 3* Z /
 'R_A3'    8    11    6    6  OPEN    2*     0.2413 3* Z /
 'R_A3'    8    11    7    7  OPEN    2*     0.2413 3* Z /
 'R_A3'    8    11    8    8  OPEN    2*     0.2413 3* Z /
 'R_A3'    8    11    9    9  OPEN    2*     0.2413 3* Z /
 'R_A3'    8    11    10    10  OPEN    2*     0.2413 3* Z /
 'R_A3'    8    11    11    11  OPEN    2*     0.2413 3* Z /
 'R_A3'    8    11    12    12  OPEN    2*     0.2413 3* Z /
 'R_A3'    8    11    13    13  OPEN    2*     0.2413 3* Z /
 'R_A3'    8    11    14    14  OPEN    2*     0.2413 3* Z /
 'R_A3'    8    11    15    15  OPEN    2*     0.2413 3* Z /
 'R_A3'    8    11    16    16  OPEN    2*     0.2413 3* Z /
 'R_A3'    8    11    27    27  OPEN    2*     0.2413 3* Z /
 'R_A3'    8    11    28    28  OPEN    2*     0.2413 3* Z /
 'R_A3'    8    11    29    29  OPEN    2*     0.2413 3* Z /
 'R_A3'    8    11    30    30  OPEN    2*     0.2413 3* Z /
 'R_A3'    8    11    31    31  OPEN    2*     0.2413 3* Z /
---------------------------------------------------------------------------------------------------------------
 'R_A4'    8    14    1    1  OPEN    2*     0.2413 3* X /
 'R_A4'    8    14    1    1  OPEN    2*     0.2413 3* X /
 'R_A4'    8    14    2    2  OPEN    2*     0.2413 3* X /
 'R_A4'    8    14    3    3  OPEN    2*     0.2413 3* X /
 'R_A4'    8    14    4    4  OPEN    2*     0.2413 3* X /
 'R_A4'    8    14    4    4  OPEN    2*     0.2413 3* X /
 'R_A4'    8    14    4    4  OPEN    2*     0.2413 3* X /
 'R_A4'    9    14    4    4  OPEN    2*     0.2413 3* X /
 'R_A4'    9    14    3    3  OPEN    2*     0.2413 3* X /
 'R_A4'    9    14    4    4  OPEN    2*     0.2413 3* X /
 'R_A4'    9    14    4    4  OPEN    2*     0.2413 3* X /
 'R_A4'    9    14    3    3  OPEN    2*     0.2413 3* X /
 'R_A4'    9    14    3    3  OPEN    2*     0.2413 3* X /
 'R_A4'    9    14    2    2  OPEN    2*     0.2413 3* X /
 'R_A4'    9    13    2    2  OPEN    2*     0.2413 3* X /
 'R_A4'    9    13    30    30  OPEN    2*    0.2413 3* X /
 'R_A4'    9    13    30    30  OPEN    2*     0.2413 3* X /
 'R_A4'    10    13    30    30  OPEN    2*    0.2413 3* X /
 'R_A4'    10    13    30    30  OPEN    2*     0.2413 3* X /
 'R_A4'    10    13    30    30  OPEN    2*     0.2413 3* X /
---------------------------------------------------------------------------------------------------------------
 'R_A5'    8    6    1    1  OPEN    2*     0.2413 3* Z /
 'R_A5'    8    6    2    2  OPEN    2*     0.2413 3* Z /
 'R_A5'    8    6    3    3  OPEN    2*     0.2413 3* Z /
 'R_A5'    8    6    4    4  OPEN    2*     0.2413 3* Z /
 'R_A5'    8    6    5    5  OPEN    2*     0.2413 3* Z /
 'R_A5'    8    6    6    6  OPEN    2*     0.2413 3* Z /
 'R_A5'    8    6    7    7  OPEN    2*     0.2413 3* Z /
 'R_A5'    8    6    8    8  OPEN    2*     0.2413 3* Z /
 'R_A5'    8    6    9    9  OPEN    2*     0.2413 3* Z /
 'R_A5'    8    6    10    10  OPEN    2*     0.2413 3* Z /
 'R_A5'    8    6    11    11  OPEN    2*    0.2413 3* Z /
 'R_A5'    8    6    12    12  OPEN    2*     0.2413 3* Z /
 'R_A5'    8    6    13    13  OPEN    2*     0.2413 3* Z /
 'R_A5'    8    6    14    14  OPEN    2*     0.2413 3* Z /
 'R_A5'    8    6    15    15  OPEN    2*     0.2413 3* Z /
 'R_A5'    8    6    16    16  OPEN    2*     0.2413 3* Z /
 'R_A5'    8    6    17    17  OPEN    2*     0.2413 3* Z /
 'R_A5'    8    6    18    18  OPEN    2*     0.2413 3* Z /
 'R_A5'    8    6    19    19  OPEN    2*     0.2413 3* Z /
 'R_A5'    8    6    27    27  OPEN    2*     0.2413 3* Z /
 'R_A5'    8    6    28    28  OPEN    2*     0.2413 3* Z /
 'R_A5'    8    6    29    29  OPEN    2*     0.2413 3* Z /
 'R_A5'    8    6    30    30  OPEN    2*     0.2413 3* Z /
 'R_A5'    8    6    31    31  OPEN    2*     0.2413 3* Z /
---------------------------------------------------------------------------------------------------------------
 'R_A6'    5    12    1    1  OPEN    2*     0.2413 3* Z /
 'R_A6'    5    12    2    2  OPEN    2*     0.2413 3* Z /
 'R_A6'    5    12    3    3  OPEN    2*     0.2413 3* Z /
 'R_A6'    5    12    4    4  OPEN    2*     0.2413 3* Z /
 'R_A6'    5    12    5    5  OPEN    2*     0.2413 3* Z /
 'R_A6'    5    12    6    6  OPEN    2*     0.2413 3* Z /
 'R_A6'    5    12    7    7  OPEN    2*     0.2413 3* Z /
 'R_A6'    5    12    8    8  OPEN    2*     0.2413 3* Z /
 'R_A6'    5    12    9    9  OPEN    2*     0.2413 3* Z /
 'R_A6'    5    12    10    10  OPEN    2*     0.2413 3* Z /
 'R_A6'    5    12    11    11  OPEN    2*     0.2413 3* Z /
 'R_A6'    5    12    12    12  OPEN    2*     0.2413 3* Z /
 'R_A6'    5    12    13    13  OPEN    2*     0.2413 3* Z /
 'R_A6'    5    12    14    14  OPEN    2*     0.2413 3* Z /
 'R_A6'    5    12    15    15  OPEN    2*     0.2413 3* Z /
 'R_A6'    5    12    16    16  OPEN    2*     0.2413 3* Z /
 'R_A6'    5    12    17    17  OPEN    2*     0.2413 3* Z /
 'R_A6'    5    12    18    18  OPEN    2*     0.2413 3* Z /
 'R_A6'    5    12    27    27  OPEN    2*     0.2413 3* Z /
 'R_A6'    5    12    28    28  OPEN    2*     0.2413 3* Z /
 'R_A6'    5    12    29    29  OPEN    2*     0.2413 3* Z /
 'R_A6'    5    12    30    30  OPEN    2*     0.2413 3* Z /
 'R_A6'    5    12    31    31  OPEN    2*     0.2413 3* Z /
---------------------------------------------------------------------------------------------------------------
/

WCONHIST
--WELL  OP/SH   CTL       ORAT       WRAT       GRAT   VFP        ALQ        THP        BHP
 'R_A2'  SHUT  ORAT          0         1*         1*    1*         1*         1*         1* /
 'R_A3'  SHUT  ORAT          0         1*         1*    1*         1*         1*         1* /
 'R_A4'  SHUT  ORAT          0         1*         1*    1*         1*         1*         1* /
 'R_A5'  SHUT  ORAT          0         1*         1*    1*         1*         1*         1* /
 'R_A6'  SHUT  ORAT          0         1*         1*    1*         1*         1*         1* /
/

WRFTPLT
--WELL    RFT   PLT   SEG
 'R_A2'   YES    NO    NO /
 'R_A3'   YES    NO    NO /
 'R_A4'   YES    NO    NO /
 'R_A5'   YES    NO    NO /
 'R_A6'   YES    NO    NO /
/

TUNING
-- TSINIT       TSMAXZ     TSMINZ     TSMCHP     TSFMAX     TSFMIN     TSFCNV     TFDIFF     THRUPT     TMAXWC
          1         30         1*         1*         1*         1*         1*         1*         1*          1 /
-- TRGTTE       TRGCNV     TRGMBE     TRGLCV     XXXTTE     XXXCNV     XXXMBE     XXXLCV     XXXWFL
         1*         1*         1*         1*         1*         1*         1*         1*         1* /
-- NEWTMX       NEWTMN     LITMAX     LITMIN     MXWSIT     MXWPIT
         12          1         50          1         50         50 /

RPTRST
 BASIC=2 FLOWS FLORES /

DATES
 5 JAN 2018 /
/

WELSPECS
--WELL   GROUP  IHEEL JHEEL       DREF PHASE       DRAD INFEQ SIINS XFLOW PRTAB  DENS
 'A1'   'OP'       8    9 1595.91846   OIL         1*    1*  SHUT    1*    1*    1* /
/

COMPORD
 'A1'    INPUT /
/

COMPDAT
--WELL      I     J    K1    K2 OP/SH  SATN       TRAN      WBDIA         KH       SKIN DFACT   DIR      PEQVR
---------------------------------------------------------------------------------------------------------------
 'A1'      8    9     1     1  OPEN    2* 0.2413 1* 5 1*  Z /
 'A1'      8    9     2     2  OPEN    2* 0.2413 1* 5 1*  Z /
 'A1'      8    9     3     3  OPEN    2* 0.2413 1* 5 1*  Z /
 'A1'      8    9     4     4  OPEN    2* 0.2413 1* 5 1*  Z /
 'A1'      8    9     5     5  OPEN    2* 0.2413 1* 5 1*  Z /
 'A1'      8    9     6     6  OPEN    2* 0.2413 1* 5 1*  Z /
 'A1'      8    9     7     7  OPEN    2* 0.2413 1* 5 1*  Z /
 'A1'      8    9     8     8  OPEN    2* 0.2413 1* 5 1*  Z /
 'A1'      8    9     9     9  OPEN    2* 0.2413 1* 5 1*  Z /
 'A1'      8    9    10    10  OPEN    2* 0.2413 1* 5 1*  Z /
 'A1'      8    9    11    11  OPEN    2* 0.2413 1* 5 1*  Z /
 'A1'      8    9    12    12  OPEN    2* 0.2413 1* 5 1*  Z /
 'A1'      8    9    13    13  OPEN    2* 0.2413 1* 5 1*  Z /
 'A1'      8    9    14    14  OPEN    2* 0.2413 1* 5 1*  Z /
 'A1'      8    9    15    15  OPEN    2* 0.2413 1* 5 1*  Z /
 'A1'      8    9    16    16  OPEN    2* 0.2413 1* 5 1*  Z /
 'A1'      8    9    27    27  OPEN    2* 0.2413 1* 5 1*  Z /
 'A1'      8    9    28    28  OPEN    2* 0.2413 1* 5 1*  Z /
 'A1'      8    9    29    29  OPEN    2* 0.2413 1* 5 1*  Z /
 'A1'      8    9    30    30  OPEN    2* 0.2413 1* 5 1*  Z /
 'A1'      8    9    31    31  OPEN    2* 0.2413 1* 5 1*  Z /
---------------------------------------------------------------------------------------------------------------
/

WPIMULT
${" A1 {0} /".format(pow(10.0,wpimult[0]))}
/

WCONHIST
--WELL  OP/SH   CTL       ORAT       WRAT       GRAT   VFP        ALQ        THP        BHP