

-- *------------------------------------------*
-- *                                          *
-- * base grid model with input parameters    *
-- *                                          *
-- *------------------------------------------*
RUNSPEC

TITLE
 INVERTED 5 SPOT MODEL

--DIMENS
-- NDIVIX NDIVIY NDIVIZ
--   60    60      5 /

--BLACKOIL
OIL
WATER
GAS
DISGAS

METRIC

TABDIMS
-- NTSFUN  NTPVT  NSSFUN  NPPVT  NTFIP  NRPVT  NTENDP
     1       1      35      30     5     30      1 /

EQLDIMS
-- NTEQUL  NDRXVD  NDPRVD
   1       5       100 /

WELLDIMS
-- NWMAXZ NCWMAX NGMAXZ MWGMAX 
    15     15     2      20 /

VFPPDIMS
-- MXMFLO MXMTHP MXMWFR MXMGFR MXMALQ NMMVFT
   10     10     10     10     1      1 /

VFPIDIMS
-- MXSFLO MXSTHP NMSVFT
   10     10     1 /

AQUDIMS
-- MXNAQN  MXNAQC NIFTBL NRIFTB NANAQU NCAMAX
   0       0      1      36     2       200/

FAULTDIM
    500 / 

START
 01 JAN 2022 /

NSTACK
 25 /


NOECHO

GRID
INIT

INCLUDE
'../../large/grid/Grid.grdecl' /
/

PERMX
125.410
137.637
148.955
157.665
162.266
162.032
157.211
148.859
138.344
126.885
115.310
104.032
93.179
82.767
72.823
63.448
54.801
47.051
40.317
34.646
30.015
26.351
23.559
21.547
20.238
19.571
19.501
19.985
20.965
22.350
23.992
25.700
27.272
28.571
29.588
30.475
31.526
33.128
35.735
39.870
46.163
55.402
68.582
86.917
111.794
144.582
186.208
236.355
292.405
348.413
395.214
403.429
403.429
395.126
345.868
285.739
225.286
171.764
128.425
95.477
136.864
152.553
166.921
177.745
183.146
182.334
175.820
165.117
152.057
138.189
124.501
111.430
99.045
87.280
76.100
65.580
55.893
47.243
39.778
33.560
28.553
24.659
21.749
19.698
18.402
17.786
17.804
18.422
19.608
21.299
23.374
25.647
27.888
29.895
31.586
33.059
34.595
36.607
39.599
44.144
50.901
60.647
74.294
92.852
117.336
148.547
186.679
230.705
277.713
322.421
357.673
376.225
373.466
349.616
309.713
261.474
212.344
167.600
129.913
99.901
138.884
156.756
173.169
185.548
191.775
191.036
184.032
172.564
158.726
144.219
130.057
116.622
103.882
91.672
79.895
68.626
58.095
48.593
40.357
33.502
28.010
23.771
20.628
18.425
17.033
16.360
16.358
17.005
18.298
20.220
22.702
25.595
28.665
31.649
34.359
36.786
39.140
41.823
45.366
50.373
57.499
67.446
80.933
98.632
121.054
148.360
180.098
214.864
250.033
281.667
305.081
316.021
312.173
294.175
265.350
230.435
193.978
159.378
128.647
102.663
131.098
149.188
165.943
178.755
185.506
185.430
179.292
168.929
156.409
143.360
130.684
118.630
107.022
95.569
84.092
72.665
61.604
51.352
42.298
34.679
28.545
23.801
20.276
17.788
16.182
15.345
15.221
15.797
17.098
19.161
21.993
25.522
29.557
33.802
37.950
41.819
45.464
49.193
53.507
59.001
66.285
75.920
88.367
103.902
122.543
143.959
167.372
191.471
214.390
233.771
247.149
252.535
249.043
237.244
218.915
196.429
172.050
147.574
124.273
103.025
116.075
132.457
147.777
159.708
166.391
167.196
162.846
154.987
145.427
135.543
126.026
116.945
107.950
98.570
88.479
77.688
66.581
55.773
45.884
37.354
30.373
24.913
20.816
17.882
15.929
14.821
14.484
14.904
16.130
18.250
21.362
25.508
30.600
36.371
42.411
48.311
53.850
59.100
64.420
70.322
77.328
85.848
96.100
108.058
121.445
135.764
150.319
164.262
176.635
186.403
192.624
194.632
192.215
185.697
175.777
163.290
148.968
133.398
117.116
100.760
97.803
111.237
123.895
133.933
139.916
141.410
139.048
134.176
128.235
122.289
116.809
111.693
106.414
100.276
92.704
83.512
73.038
62.032
51.378
41.808
33.747
27.311
22.399
18.817
16.362
14.865
14.229
14.427
15.517
17.630
20.957
25.682
31.881
39.394
47.766
56.326
64.430
71.711
78.200
84.222
90.207
96.495
103.229
110.335
117.571
124.621
131.156
136.882
141.551
144.936
146.860
147.225
146.026
143.360
139.330
133.949
127.080
118.515
108.171
96.325
79.861
89.983
99.564
107.284
112.160
113.957
113.218
110.986
108.357
106.131
104.622
103.638
102.537
100.398
96.313
89.734
80.755
70.118
58.931
48.276
38.917
31.213
25.197
20.721
17.571
15.550
14.524
14.440
15.351
17.419
20.917
26.184
33.504
42.909
53.969
65.746
77.023
86.736
94.353
99.912
103.825
106.589
108.591
110.048
111.057
111.675
111.962
112.003
111.899
111.723
111.536
111.373
111.237
111.087
110.770
109.955
108.100
104.555
98.791
90.719
64.412
71.522
78.275
83.796
87.480
89.250
89.564
89.218
89.049
89.683
91.382
93.973
96.809
98.838
98.817
95.716
89.166
79.668
68.406
56.792
46.006
36.770
29.347
23.699
19.635
16.932
15.414
14.990
15.692
17.698
21.351
27.139
35.575
46.937
60.892
76.235
91.039
103.288
111.662
115.877
116.532
114.633
111.178
106.950
102.502
98.215
94.346
91.078
88.535
86.782
85.854
85.754
86.446
87.835
89.701
91.619
92.917
92.740
90.279
85.147
52.222
56.935
61.443
65.200
67.858
69.437
70.314
71.105
72.468
74.938
78.801
83.998
90.000
95.761
99.821
100.668
97.328
89.812
79.143
66.937
54.796
43.891
34.825
27.755
22.563
19.021
16.911
16.093
16.568
18.514
22.331
28.642
38.183
51.494
68.361
87.303
105.570
120.015
128.415
130.271
126.675
119.509
110.636
101.473
92.918
85.461
79.308
74.518
71.067
68.895
67.941
68.153
69.467
71.790
74.915
78.439
81.682
83.719
83.583
80.663
43.161
46.130
49.036
51.543
53.457
54.832
55.973
57.361
59.534
62.983
68.049
74.818
82.961
91.569
99.137
103.813
104.027
99.154
89.815
77.615
64.474
52.020
41.273
32.669
26.224
21.739
18.967
17.724
17.971
19.884
23.905
30.774
41.426
56.630
76.260
98.509
119.739
135.620
143.105
141.723
133.385
121.074
107.543
94.689
83.513
74.383
67.294
62.084
58.553
56.514
55.831
56.417
58.209
61.136
65.041
69.574
74.096
77.671
79.234
77.998
36.717
38.503
40.366
42.089
43.552
44.808
46.089
47.774
50.316
54.175
59.738
67.222
76.491
86.845
96.886
104.631
108.088
106.034
98.562
87.049
73.536
60.002
47.866
37.882
30.254
24.856
21.442
19.798
19.860
21.800
26.104
33.615
45.431
62.487
84.661
109.738
133.166
149.536
155.221
150.097
137.112
120.354
103.284
88.013
75.424
65.631
58.367
53.265
49.984
48.255
47.904
48.836
51.006
54.381
58.857
64.145
69.657
74.457
77.400
77.531
32.322
33.360
34.614
35.928
37.207
38.473
39.892
41.761
44.465
48.431
54.063
61.654
71.209
82.220
93.466
103.030
108.759
109.049
103.525
93.223
80.087
66.244
53.382
42.521
34.062
27.986
24.090
22.165
22.149
24.233
28.956
37.263
50.384
69.351
93.930
121.400
146.304
162.345
165.642
156.691
139.535
119.206
99.606
82.837
69.546
59.564
52.397
47.526
44.520
43.068
42.986
44.189
46.660
50.410
55.389
61.371
67.809
73.759
77.976
79.321
29.485
30.101
31.080
32.287
33.618
35.055
36.697
38.765
41.585
45.542
51.023
58.337
67.551
78.277
89.472
99.401
106.009
107.614
103.595
94.674
82.559
69.286
56.597
45.643
36.963
30.655
26.593
24.620
24.718
27.134
32.490
41.844
56.548
77.664
104.741
134.448
160.434
175.710
176.413
163.821
143.012
119.756
98.195
80.314
66.507
56.365
49.220
44.449
41.567
40.243
40.296
41.661
44.352
48.427
53.894
60.584
67.986
75.123
80.619
83.107
27.842
28.288
29.256
30.613
32.231
34.039
36.061
38.442
41.438
45.381
50.616
57.415
65.835
75.531
85.598
94.545
100.597
102.275
98.978
91.247
80.501
68.512
56.860
46.648
38.460
32.475
28.665
26.963
27.444
30.455
36.743
47.514
64.246
87.999
118.008
150.230
177.410
191.971
190.214
174.237
150.064
124.068
100.561
81.419
66.838
56.224
48.783
43.813
40.788
39.365
39.366
40.743
43.545
47.875
53.798
61.200
69.592
77.943
84.706
88.243
27.138
27.622
28.809
30.567
32.735
35.177
37.824
40.722
44.038
48.027
52.969
59.071
66.335
74.416
82.523
89.437
93.777
94.451
91.072
84.132
74.786
64.449
54.401
45.561
38.453
33.295
30.146
29.055
30.224
34.147
41.744
54.416
73.799
100.937
134.686
170.195
199.230
213.614
209.804
190.667
163.098
134.067
108.118
87.113
71.138
59.473
51.222
45.615
42.082
40.260
39.965
41.163
43.924
48.391
54.677
62.714
72.019
81.483
89.356
93.704
27.217
27.922
29.555
31.985
35.026
38.461
42.098
45.834
49.699
53.836
58.438
63.638
69.388
75.354
80.880
85.054
86.942
85.907
81.855
75.296
67.150
58.475
50.201
43.001
37.285
33.264
31.071
30.870
33.013
38.174
47.496
62.632
85.422
116.910
155.535
195.549
227.624
242.849
237.680
215.619
184.401
151.679
122.393
98.557
80.256
66.708
56.933
50.094
45.567
42.954
42.054
42.823
45.338
49.761
56.232
64.703
74.674
84.931
93.514
98.211
27.989
29.094
31.407
34.826
39.150
44.071
49.224
54.279
59.037
63.466
67.644
71.654
75.454
78.795
81.237
82.224
81.278
78.195
73.142
66.640
59.395
52.140
45.482
39.858
35.551
32.750
31.639
32.494
35.820
42.499
53.935
72.081
99.040
135.891
180.661
226.664
263.368
280.918
275.486
250.983
215.915
178.744
145.030
117.147
95.331
78.815
66.578
57.720
51.561
47.652
45.750
45.779
47.788
51.923
58.315
66.892
77.099
87.598
96.237
100.610
29.414
31.099
34.351
39.133
45.256
52.319
59.722
66.786
72.943
77.868
81.492
83.897
85.164
85.278
84.134
81.600
77.635
72.383
66.178
59.495
52.833
46.643
41.269
36.954
33.874
32.195
32.143
34.096
38.710
47.083
60.899
82.448
114.130
157.114
209.076
262.456
305.500
327.223
323.158
297.252
258.603
216.535
177.433
144.267
117.616
96.861
81.012
69.150
60.549
54.706
51.310
50.216
51.405
54.960
60.944
69.213
79.106
89.149
97.052
100.356
31.478
33.934
38.409
44.981
53.525
63.555
74.169
84.185
92.452
98.179
101.085
101.329
99.299
95.424
90.106
83.703
76.567
69.080
61.627
54.567
48.186
42.693
38.227
34.884
32.763
32.015
32.904
35.896
41.788
51.882
68.134
93.156
129.646
178.897
238.368
299.842
350.541
378.321
377.737
352.281
311.247
264.680
219.876
180.600
147.988
121.749
101.064
85.089
73.107
64.573
59.098
56.430
56.437
59.082
64.305
71.826
80.838
89.732
96.161
97.765
34.165
37.591
43.587
52.413
64.070
78.022
93.008
107.160
118.477
125.451
127.488
124.914
118.661
109.879
99.673
88.960
78.434
68.598
59.772
52.136
45.751
40.619
36.713
34.022
32.590
32.558
34.225
38.131
45.190
56.868
75.338
103.455
144.140
198.803
264.854
333.804
392.332
403.429
403.429
403.429
368.974
319.654
270.108
224.944
186.015
153.547
127.084
106.011
89.733
77.727
69.541
64.807
63.237
64.630
68.747
75.125
82.776
89.973
94.395
93.912
37.416
42.003
49.806
61.333
76.788
95.635
116.226
135.836
151.317
160.140
161.241
155.200
143.757
129.091
113.222
97.693
83.486
71.115
60.739
52.308
45.653
40.586
36.943
34.629
33.645
34.128
36.401
41.054
49.081
62.047
82.233
112.591
156.100
214.211
284.431
358.482
403.429
403.429
403.429
403.429
403.429
373.935
322.278
273.095
228.936
190.654
158.315
131.719
110.562
94.474
83.024
75.754
72.222
72.035
74.743
79.662
85.614
90.770
92.898
90.177
41.071
46.972
56.802
71.372
91.162
115.705
142.972
169.261
190.021
201.397
201.672
191.721
174.332
152.988
130.821
110.046
91.883
76.774
64.653
55.205
48.031
42.769
39.136
36.964
36.218
37.028
39.726
44.925
53.645
67.462
88.624
119.980
164.348
223.066
293.825
369.008
403.429
403.429
403.429
403.429
403.429
403.429
367.336
317.740
271.252
229.243
192.337
160.868
135.000
114.701
99.710
89.588
83.794
81.761
82.824
86.067
90.117
93.062
92.791
87.809
44.818
52.089
64.011
81.731
106.053
136.646
171.151
204.876
231.731
246.323
246.124
232.285
208.770
180.533
151.910
125.803
103.622
85.692
71.693
61.049
53.147
47.464
43.616
41.371
40.661
41.598
44.510
49.999
59.052
73.157
94.381
125.270
168.254
224.396
291.581
363.179
403.429
403.429
403.429
403.429
403.429
403.429
395.741
350.290
305.749
263.678
225.072
190.755
161.437
137.588
119.310
106.358
98.211
94.205
93.492
94.943
96.997
97.667
94.962
87.699
48.167
56.700
70.535
91.138
119.649
155.926
197.386
238.458
271.585
289.828
289.769
272.764
243.893
209.530
175.149
144.272
118.462
97.919
82.098
70.202
61.436
55.153
50.882
48.340
47.428
48.239
51.076
56.500
65.407
79.111
99.374
128.281
167.721
218.363
278.287
342.009
401.015
403.429
403.429
403.429
403.429
403.429
401.297
364.082
325.891
288.058
251.602
217.592
187.180
161.379
140.797
125.556
115.325
109.462
107.014
106.676
106.723
105.096
99.919
90.294
50.503
59.978
75.227
97.978
129.672
170.387
217.459
264.706
303.426
325.371
326.304
307.651
275.337
236.831
198.481
164.270
135.866
113.382
96.120
83.131
73.505
66.507
61.612
58.504
57.064
57.369
59.692
64.529
72.644
85.115
103.325
128.830
162.922
205.874
255.975
308.926
358.304
397.370
403.429
403.429
403.429
403.429
383.782
357.151
328.410
298.363
267.720
237.455
208.902
183.471
162.269
145.885
134.312
127.054
123.151
121.188
119.307
115.397
107.696
95.579
51.264
61.162
77.037
100.784
134.064
177.181
227.572
278.836
321.653
346.950
349.870
331.732
298.839
259.218
219.660
184.378
155.094
131.883
113.980
100.370
90.085
82.351
76.623
72.581
70.119
69.323
70.452
73.941
80.409
90.679
105.745
126.648
154.151
188.211
227.383
268.492
307.031
338.372
359.305
369.015
368.805
361.173
348.584
332.742
314.461
293.946
271.434
247.561
223.541
200.924
181.146
165.209
153.462
145.634
140.835
137.601
133.994
127.886
117.654
102.960
50.181
59.880
75.457
98.844
131.816
174.892
225.790
278.341
323.265
351.273
357.161
341.940
311.735
274.499
236.983
203.385
175.420
153.165
135.850
122.436
111.929
103.535
96.714
91.196
86.950
84.145
83.089
84.198
87.978
95.022
105.974
121.448
141.799
166.803
195.327
225.180
253.433
277.158
294.363
304.546
308.493
307.715
303.645
297.157
288.457
277.266
263.387
247.054
229.188
211.228
194.703
180.848
170.278
162.926
157.993
154.011
149.016
140.924
128.306
111.143
47.461
56.404
70.848
92.645
123.568
164.310
213.018
264.169
309.151
339.071
348.662
338.451
313.873
282.232
249.830
220.643
196.328
176.965
161.774
149.666
139.568
130.628
122.328
114.519
107.375
101.292
96.758
94.268
94.277
97.198
103.395
113.147
126.529
143.243
162.460
182.776
202.426
219.706
233.481
243.470
250.096
254.174
256.400
257.067
255.971
252.531
246.264
237.092
225.630
213.088
200.892
190.302
182.037
176.124
171.819
167.661
161.710
152.006
137.389
118.191
43.756
51.582
64.351
83.738
111.409
148.168
192.661
240.290
283.586
314.549
328.114
324.233
307.301
283.583
258.651
236.127
217.554
202.979
191.534
181.951
172.932
163.465
153.054
141.794
130.283
119.386
109.968
102.726
98.127
96.435
97.770
102.143
109.425
119.285
131.131
144.111
157.239
169.599
180.601
190.094
198.265
205.465
211.901
217.479
221.740
223.946
223.477
220.086
214.178
206.734
198.991
192.086
186.682
182.778
179.610
175.717
169.236
158.419
142.445
122.000
39.935
46.532
57.446
74.118
98.033
130.030
169.225
212.049
252.419
283.545
300.796
303.592
295.164
280.561
264.490
250.137
238.878
230.645
224.334
218.296
210.790
200.513
187.018
170.860
153.376
136.203
120.787
108.110
98.647
92.486
89.487
89.404
91.922
96.667
103.190
110.974
119.499
128.320
137.167
145.977
154.802
163.720
172.636
181.210
188.824
194.667
198.078
198.761
197.018
193.666
189.749
186.219
183.586
181.731
179.817
176.385
169.704
158.316
141.781
121.103
36.813
42.263
51.435
65.521
85.781
113.013
146.713
184.269
221.003
251.459
271.625
280.555
280.408
275.032
268.244
262.743
259.663
258.694
258.318
256.269
250.163
238.336
220.528
198.061
173.365
149.104
127.390
109.447
95.657
85.841
79.550
76.269
75.503
76.808
79.799
84.135
89.552
95.861
102.982
110.917
119.673
129.195
139.227
149.289
158.666
166.519
172.197
175.418
176.449
176.004
174.965
174.090
173.706
173.543
172.683
169.694
163.035
151.585
135.282
115.364
35.015
39.494
47.195
59.068
76.136
99.101
127.712
160.147
192.979
222.044
244.065
257.955
265.037
268.113
270.157
273.337
278.443
284.774
290.210
291.708
286.174
271.692
248.467
218.929
186.827
155.882
128.739
106.667
89.792
77.581
69.256
64.048
61.308
60.527
61.335
63.480
66.821
71.306
76.959
83.837
91.954
101.218
111.317
121.714
131.658
140.317
147.073
151.681
154.401
155.867
156.823
157.845
159.088
160.144
160.039
157.412
150.945
139.864
124.434
106.024
35.000
38.686
45.208
55.299
69.754
89.140
113.347
141.139
170.096
197.185
219.889
237.196
249.876
259.908
269.517
280.308
292.611
305.192
315.232
318.915
312.612
294.482
265.546
229.516
191.371
155.583
124.982
100.622
82.258
68.995
59.784
53.678
49.931
47.999
47.524
48.294
50.228
53.334
57.690
63.388
70.470
78.856
88.248
98.120
107.750
116.356
123.376
128.605
132.292
134.990
137.307
139.659
142.051
143.971
144.423
142.149
136.062
125.697
111.559
95.055
37.176
40.176
45.734
54.393
66.736
83.183
103.679
127.381
152.618
177.264
199.498
218.517
234.792
249.711
264.863
281.288
298.781
315.527
328.068
332.063
323.765
301.832
268.303
227.993
186.629
148.882
117.360
92.729
74.384
61.178
51.919
45.594
41.437
38.913
37.686
37.573
38.518
40.550
43.761
48.256
54.095
61.228
69.404
78.164
86.866
94.830
101.575
106.943
111.158
114.679
117.981
121.331
124.614
127.245
128.233
126.430
120.949
111.558
98.912
84.387
42.022
44.315
48.975
56.380
66.927
80.889
98.205
118.275
139.941
161.740
182.417
201.417
219.085
236.409
254.473
273.802
293.695
311.864
324.492
327.163
316.503
291.948
256.409
215.248
174.224
137.639
107.610
84.410
67.216
54.805
45.994
39.814
35.550
32.718
31.019
30.299
30.515
31.694
33.919
37.284
41.849
47.587
54.302
61.624
69.036
75.995
82.126
87.326
91.788
95.878
99.942
104.122
108.205
111.558
113.205
112.083
107.445
99.204
88.082
75.388
50.086
51.466
55.089
61.194
70.020
81.702
96.142
112.863
131.027
149.605
167.744
185.104
201.986
219.122
237.230
256.448
275.750
292.660
303.430
304.050
291.852
267.005
232.799
194.415
156.998
124.121
97.358
76.723
61.361
50.141
42.010
36.123
31.868
28.839
26.793
25.609
25.253
25.745
27.145
29.520
32.915
37.308
42.549
48.362
54.362
60.159
65.499
70.337
74.847
79.313
83.976
88.882
93.750
97.914
100.405
100.203
96.625
89.639
79.964
68.835
61.819
61.846
64.055
68.577
75.519
84.899
96.551
110.041
124.689
139.715
154.508
168.875
183.105
197.780
213.394
229.887
246.163
259.915
267.876
266.766
254.668
232.148
202.281
169.471
137.871
110.244
87.721
70.221
57.006
47.144
39.777
34.223
29.998
26.795
24.440
22.853
22.017
21.943
22.664
24.217
26.618
29.840
33.765
38.194
42.863
47.521
52.032
56.409
60.822
65.500
70.617
76.162
81.814
86.891
90.414
91.358
89.021
83.342
74.984
65.112
77.157
75.180
75.398
77.878
82.622
89.538
98.373
108.662
119.768
131.017
141.926
152.391
162.709
173.396
184.858
197.017
208.949
218.787
223.979
222.056
211.678
193.419
169.706
143.874
119.019
97.179
79.186
64.981
54.012
45.572
39.007
33.802
29.607
26.222
23.558
21.589
20.320
19.761
19.925
20.814
22.418
24.696
27.548
30.834
34.384
38.060
41.819
45.732
49.974
54.753
60.215
66.332
72.778
78.868
83.601
85.894
84.953
80.607
73.419
64.489
95.012
90.326
87.954
87.936
90.190
94.507
100.520
107.677
115.304
122.751
129.599
135.815
141.735
147.879
154.663
162.107
169.574
175.736
178.771
176.911
169.175
155.906
138.731
119.932
101.667
85.397
71.761
60.763
52.031
45.055
39.353
34.551
30.418
26.865
23.894
21.549
19.873
18.884
18.579
18.938
19.924
21.479
23.518
25.937
28.634
31.553
34.719
38.249
42.336
47.191
52.969
59.658
66.958
74.195
80.329
84.180
84.788
81.799
75.636
67.334
113.002
105.180
99.899
97.195
96.898
98.677
102.025
106.268
110.657
114.537
117.542
119.723
121.493
123.421
125.972
129.287
133.005
136.266
137.841
136.491
131.447
122.776
111.404
98.745
86.219
74.849
65.129
57.115
50.567
45.116
40.395
36.124
32.165
28.521
25.291
22.599
20.542
19.162
18.455
18.386
18.897
19.922
21.377
23.186
25.293
27.697
30.474
33.775
37.820
42.842
49.030
56.416
64.743
73.352
81.154
86.819
89.160
87.569
82.280
74.271
127.962
117.236
109.301
104.195
101.668
101.258
102.317
104.050
105.637
106.424
106.123
104.895
103.253
101.826
101.118
101.350
102.346
103.566
104.198
103.370
100.461
95.345
88.452
80.582
72.620
65.257
58.869
53.527
49.072
45.215
41.646
38.126
34.557
31.006
27.651
24.701
22.322
20.600
19.548
19.130
19.282
19.928
20.992
22.413
24.171
26.302
28.921
32.214
36.433
41.853
48.709
57.095
66.800
77.168
87.025
94.844
99.134
98.968
94.350
86.213
137.163
124.569
114.879
108.142
104.048
102.039
101.357
101.118
100.466
98.783
95.884
92.058
87.916
84.134
81.222
79.417
78.631
78.507
78.488
77.954
76.408
73.641
69.797
65.293
60.658
56.345
52.628
49.572
47.058
44.835
42.609
40.127
37.278
34.132
30.910
27.891
25.318
23.343
22.021
21.336
21.230
21.631
22.470
23.706
25.345
27.458
30.196
33.788
38.532
44.754
52.753
62.679
74.348
87.063
99.500
109.852
116.254
117.403
113.066
104.167
139.496
126.641
116.508
109.184
104.355
101.427
99.596
97.947
95.636
92.120
87.332
81.686
75.873
70.589
66.319
63.272
61.381
60.374
59.841
59.327
58.445
56.983
54.955
52.570
50.142
47.969
46.246
45.030
44.226
43.608
42.878
41.741
40.015
37.709
35.021
32.260
29.738
27.685
26.227
25.392
25.155
25.461
26.261
27.538
29.329
31.747
34.991
39.344
45.167
52.853
62.762
75.070
89.552
105.369
120.919
134.010
142.342
144.248
139.333
128.630
135.751
124.318
115.087
108.215
103.445
100.224
97.768
95.200
91.732
86.926
80.835
73.980
67.107
60.907
55.826
52.028
49.433
47.801
46.805
46.092
45.369
44.455
43.330
42.106
40.983
40.167
39.807
39.959
40.561
41.423
42.254
42.716
42.530
41.580
39.964
37.953
35.889
34.078
32.735
31.967
31.808
32.251
33.287
34.938
37.293
40.522
44.891
50.761
58.572
68.780
81.759
97.618
115.929
135.505
154.280
169.567
178.672
179.752
172.515
158.358
127.867
119.183
111.935
106.357
102.289
99.271
96.602
93.487
89.243
83.546
76.565
68.904
61.338
54.546
48.933
44.621
41.509
39.368
37.913
36.860
35.982
35.147
34.335
33.625
33.160
33.099
33.571
34.646
36.311
38.439
40.781
42.992
44.705
45.648
45.749
45.152
44.160
43.120
42.343
42.040
42.347
43.342
45.096
47.708
51.347
56.275
62.855
71.541
82.837
97.192
114.848
135.594
158.475
181.630
202.331
217.448
224.229
221.196
208.707
188.896
117.895
112.734
108.180
104.497
101.616
99.185
96.615
93.232
88.476
82.152
74.531
66.278
58.187
50.923
44.861
40.095
36.509
33.878
31.944
30.467
29.271
28.263
27.437
26.861
26.651
26.936
27.842
29.467
31.858
34.981
38.679
42.661
46.524
49.860
52.384
54.029
54.960
55.498
56.022
56.870
58.324
60.611
63.945
68.569
74.792
83.014
93.715
107.413
124.563
145.359
169.513
195.974
222.738
246.947
265.279
274.716
273.371
261.114
239.685
212.213
107.300
105.908
104.413
103.026
101.710
100.195
98.003
94.587
89.526
82.748
74.619
65.853
57.262
49.507
42.952
37.682
33.576
30.418
27.970
26.025
24.444
23.159
22.176
21.552
21.380
21.772
22.850
24.741
27.565
31.398
36.223
41.875
48.010
54.148
59.805
64.642
68.581
71.810
74.718
77.770
81.451
86.227
92.565
100.957
111.952
126.143
144.102
166.248
192.609
222.495
254.259
285.177
311.679
330.057
337.327
332.075
314.832
287.921
254.821
219.340
96.805
98.999
100.641
101.795
102.366
102.101
100.595
97.413
92.257
85.172
76.607
67.327
58.174
49.823
42.654
36.765
32.046
28.297
25.299
22.873
20.901
19.329
18.159
17.429
17.209
17.587
18.683
20.650
23.673
27.949
33.631
40.752
49.129
58.330
67.743
76.746
84.923
92.202
98.888
105.550
112.938
121.876
133.246
147.961
166.943
191.022
220.719
255.889
295.271
336.053
373.911
403.429
403.429
403.429
403.429
374.434
334.865
290.764
246.585
205.614
86.583
91.852
96.452
100.235
102.963
104.315
103.885
101.291
96.322
89.109
80.175
70.348
60.520
51.420
43.474
36.820
31.381
26.977
23.413
20.525
18.202
16.387
15.062
14.238
13.953
14.273
15.308
17.229
20.277
24.759
31.008
39.302
49.718
62.007
75.558
89.518
103.083
115.794
127.750
139.569
152.316
167.315
186.059
210.091
240.859
279.410
325.843
378.548
403.429
403.429
403.429
403.429
403.429
403.429
403.429
386.971
324.575
266.433
215.985
174.426
76.569
84.158
91.282
97.588
102.647
105.986
107.103
105.574
101.188
94.108
84.912
74.503
63.869
53.840
44.938
37.374
31.121
26.029
21.918
18.625
16.028
14.047
12.629
11.751
11.419
11.673
12.614
14.417
17.361
21.842
28.356
37.432
49.468
64.521
82.132
101.339
120.965
140.085
158.457
176.673
196.118
218.720
246.751
282.558
328.198
384.767
403.429
403.429
403.429
403.429
403.429
403.429
403.429
403.429
403.429
363.909
286.023
222.040
172.359
135.246
66.732
75.743
84.735
93.228
100.622
106.245
109.403
109.504
106.212
99.626
90.337
79.336
67.762
56.619
46.589
37.994
30.877
25.117
20.528
16.929
14.163
12.106
10.667
9.784
9.432
9.630
10.464
12.108
14.855
19.157
25.627
35.007
48.011
65.061
85.982
109.859
135.257
160.791
185.812
210.786
237.357
268.054
305.947
354.200
403.429
403.429
403.429
403.429
403.429
403.429
403.429
403.429
403.429
403.429
403.429
312.475
231.105
170.524
127.489
97.823
57.227
66.760
76.836
86.974
96.484
104.517
110.124
112.420
110.790
105.132
95.973
84.398
71.763
59.335
48.031
38.336
30.369
24.018
19.072
15.296
12.478
10.440
9.046
8.201
7.856
8.011
8.739
10.201
12.687
16.661
22.792
31.953
45.093
62.959
85.713
112.637
142.233
172.813
203.371
234.191
267.051
304.906
351.425
403.429
403.429
403.429
403.429
403.429
403.429
403.429
403.429
403.429
403.429
403.429
348.905
248.002
174.095
123.216
89.542
67.781
48.368
57.676
68.072
79.196
90.397
100.728
108.993
113.927
114.483
110.198
101.423
89.319
75.524
61.672
49.003
38.201
29.460
22.652
17.499
13.685
10.925
8.985
7.688
6.913
6.593
6.719
7.346
8.620
10.806
14.344
19.892
28.343
40.743
58.036
80.664
108.192
139.290
172.261
205.953
240.513
277.703
320.604
373.082
403.429
403.429
403.429
403.429
403.429
403.429
403.429
403.429
403.429
403.429
392.203
273.493
185.286
124.937
85.843
61.334
46.274
40.526
49.108
59.212
70.684
83.026
95.313
106.176
113.956
117.072
114.532
106.382
93.816
78.806
63.452
49.396
37.552
28.171
21.067
15.859
12.129
9.513
7.725
6.555
5.867
5.585
5.690
6.227
7.317
9.192
12.236
17.037
24.411
35.349
50.814
71.395
96.939
126.476
158.627
192.414
227.993
267.016
312.390
367.717
403.429
403.429
403.429
403.429
403.429
403.429
403.429
403.429
403.429
403.429
303.851
203.371
133.043
87.361
59.063
42.004
31.916
33.980
41.598
51.024
62.332
75.248
88.987
102.124
112.670
118.473
117.905
110.574
97.640
81.436
64.601
49.234
36.486
26.635
19.397
14.262
10.704
8.282
6.669
5.636
5.039
4.798
4.889
5.346
6.268
7.845
10.390
14.385
20.498
29.556
42.391
59.592
81.226
106.765
135.382
166.545
200.611
239.127
284.651
340.204
403.429
403.429
403.429
403.429
403.429
403.429
403.429
403.429
403.429
332.101
225.190
146.393
93.720
60.766
40.966
29.343
22.666
28.853
35.476
44.051
54.853
67.850
82.467
97.340
110.272
118.599
120.025
113.633
100.476
83.228
65.081
48.603
35.164
25.032
17.804
12.832
9.489
7.276
5.835
4.930
4.416
4.213
4.296
4.686
5.462
6.771
8.854
12.073
16.927
24.027
34.000
47.342
64.255
84.626
108.225
135.088
165.900
202.198
246.203
300.276
365.797
403.429
403.429
403.429
403.429
403.429
403.429
403.429
351.771
246.565
162.929
104.011
65.966
42.765
29.088
21.194
16.768
25.128
30.847
38.554
48.665
61.353
76.267
92.190
106.849
117.215
120.409
114.989
101.839
83.886
64.806
47.573
33.733
23.525
16.424
11.666
8.546
6.526
5.236
4.440
3.994
3.823
3.899
4.235
4.890
5.971
7.653
10.189
13.917
19.244
26.594
36.343
48.764
64.053
82.470
104.563
131.380
164.564
206.150
257.980
320.477
390.590
403.429
403.429
403.429
403.429
403.429
361.106
264.924
180.877
117.353
74.243
47.118
30.850
21.364
15.949
12.983
22.711
27.669
34.573
43.913
55.996
70.651
86.832
102.322
113.930
118.407
113.903
101.093
83.009
63.619
46.164
32.296
22.227
15.348
10.824
7.909
6.051
4.881
4.168
3.774
3.626
3.695
3.988
4.543
5.438
6.788
8.757
11.553
15.426
20.641
27.479
36.242
47.313
61.272
79.031
101.954
131.880
170.869
220.488
280.404
346.237
403.429
403.429
403.429
403.429
363.548
281.083
200.241
133.735
85.682
54.086
34.596
23.034
16.333
12.542
10.522
21.509
25.845
32.038
40.578
51.818
65.686
81.283
96.543
108.355
113.409
109.676
97.628
80.192
61.334
44.342
30.893
21.192
14.621
10.336
7.597
5.864
4.780
4.124
3.764
3.630
3.691
3.947
4.421
5.161
6.240
7.754
9.819
12.578
16.199
20.900
26.992
34.952
45.523
59.831
79.485
106.582
143.388
191.454
249.906
313.099
369.439
403.429
402.428
363.918
298.296
223.260
154.778
101.445
64.440
40.765
26.392
17.930
13.046
10.310
8.903
21.485
25.309
30.866
38.585
48.773
61.362
75.551
89.496
100.395
105.223
102.051
91.199
75.260
57.864
42.084
29.530
20.439
14.258
10.217
7.627
5.985
4.956
4.333
3.991
3.860
3.908
4.127
4.529
5.138
5.993
7.143
8.649
10.591
13.087
16.325
20.615
26.465
34.683
46.509
63.748
88.788
124.253
171.887
230.428
292.925
345.947
373.209
363.758
319.168
253.174
183.729
124.232
80.118
50.592
32.147
21.097
14.631
10.913
8.854
7.839
119.781
131.874
143.133
151.748
156.119
155.497
150.234
141.574
131.076
120.080
109.426
99.446
90.115
81.255
72.703
64.414
56.475
49.063
42.362
36.508
31.560
27.506
24.287
21.828
20.054
18.899
18.313
18.249
18.661
19.493
20.658
22.049
23.549
25.070
26.602
28.244
30.220
32.859
36.599
41.985
49.708
60.636
75.869
96.737
124.789
161.630
208.532
265.642
330.825
398.382
403.429
403.429
403.429
403.429
403.429
375.265
303.436
236.335
179.532
134.728
129.359
144.646
158.820
169.597
175.020
174.268
167.915
157.606
145.291
132.570
120.384
109.040
98.420
88.246
78.293
68.526
59.104
50.316
42.447
35.693
30.121
25.690
22.289
19.787
18.063
17.018
16.584
16.710
17.363
18.500
20.054
21.921
23.973
26.085
28.202
30.386
32.845
35.920
40.076
45.886
54.042
65.369
80.826
101.471
128.382
162.477
204.170
252.791
305.874
358.491
403.414
403.429
403.429
403.429
385.195
334.497
278.773
224.845
177.059
137.372
130.704
148.047
164.251
176.723
183.280
183.057
176.766
166.276
153.736
140.849
128.550
117.066
106.154
95.418
84.575
73.617
62.827
52.664
43.570
35.838
29.561
24.668
20.996
18.357
16.585
15.548
15.163
15.383
16.187
17.563
19.479
21.860
24.580
27.487
30.459
33.487
36.719
40.472
45.206
51.486
59.960
71.326
86.299
105.532
129.529
158.506
192.175
229.448
268.131
304.704
334.626
353.257
357.263
345.862
321.059
286.853
247.815
208.013
170.474
137.133
123.538
141.171
157.858
170.991
178.386
179.202
174.172
165.156
154.244
143.048
132.381
122.329
112.486
102.301
91.394
79.775
67.879
56.399
46.011
37.172
30.042
24.544
20.468
17.570
15.637
14.503
14.068
14.284
15.148
16.683
18.911
21.813
25.301
29.216
33.370
37.638
42.048
46.817
52.340
59.120
67.699
78.585
92.182
108.714
128.175
150.286
174.439
199.628
224.381
246.724
264.392
275.246
277.832
271.826
258.044
238.100
213.882
187.243
159.897
133.430
110.015
126.154
141.638
154.137
161.717
163.657
160.631
154.286
146.448
138.485
131.009
123.923
116.619
108.325
98.470
86.997
74.461
61.828
50.096
39.979
31.784
25.472
20.806
17.494
15.270
13.930
13.351
13.477
14.318
15.934
18.409
21.811
26.133
31.254
36.937
42.911
48.995
55.193
61.726
68.946
77.237
86.894
98.048
110.618
124.331
138.778
153.455
167.791
181.144
192.764
201.863
207.724
209.841
208.030
202.368
193.072
180.370
164.568
146.232
126.377
93.508
106.932
119.961
130.735
137.745
140.468
139.491
136.166
131.962
127.952
124.545
121.478
117.934
112.848
105.323
95.063
82.610
69.168
56.119